P-CAD 2001 PCB TRIAL VERSION - 0 days left Version 16.00.56 Routing Log File

======================================================================

Input file:    C:\lb\4\lb_3_opt.pcb
Output file:   C:\lb\4\Rlb_3_opt.pcb
Strategy file: C:\lb\4\lb_3_opt.STR

All dimensions are in mils unless stated.

Routed by:     Quick Route

Start time:    11:09:03 29-Dec-16

Free memory:   -1843933184

Strategy selections:

  Routing grid:                20.0 


Layer selections:

  Signal Bias or    Plane                        Clearances
  Layer  Selection  Net Name          P-P   P-L   L-L   V-P   V-L   V-
V
  ------ ---------- ---------------- ----- ----- ----- ----- ----- ---
--
  Top    Hor                            10    10    10    10    10    
10
  Bottom Ver                            10    10    10    10    10    
10
  --------------------------------------------------------------------
--


  * Selected by router.


Net classes:

    Net                                          Max
   Class  Width     Via Padstack     Prio Layer  Vias Notes
  ------- ----- -------------------- ---- ------ ---- -----
  Default  10.0 (Default)               1 All      *       
  ---------------------------------------------------------
  Notes: F = Fixed, do not ripup.
         N = Do not route.
         W = Use wide pass.


Scheduled pass selection:

  Pass                    Net Classes
  Num  Pass Name          DFT
  ---- ------------------ -----------
    1  Wide line routing   x 
    2  Horizontal          x 
    3  Vertical            x 
    4  'L' routes          x 
    5  'Z' routes          x 
    6  'C' routes          x 

----------------------------------------------------------------------

29-Dec-16  11:09                                            Page    1

P-CAD 2001 PCB TRIAL VERSION - 0 days left Version 16.00.56 Routing Log File

======================================================================

    7  Any node (2 vias)   x 
    8  Maze                x 
    9  Any node (maze)     x 
   10  Trace cleanup #1    x 
   11  Trace cleanup #2    x 
   12  Via minimization    x 
   13  Via minimization      
  -----------------------------------

  * Selected by router.















































----------------------------------------------------------------------

29-Dec-16  11:09                                            Page    2

P-CAD 2001 PCB TRIAL VERSION - 0 days left Version 16.00.56 Routing Log File

======================================================================

62 total connections on the board.

Pass Performance Summary:

 Net class: Default  Width: 10.0mil       Via Padstack: (Default)     
      
  Wide line routing      Pass Num:   1    Overall
  ---------------------- ---------------- ---------
  Routes                                         62
    Completed                    0 (100%)         0 (  0%)
    Not completed                0 (100%)        62
  Vias                           0 (100%)         0
  Elapsed time             0:00:00 (100%)   0:00:00
  -------------------------------------------------


 Net class: Default  Width: 10.0mil       Via Padstack: (Default)     
      
  Horizontal             Pass Num:   2    Overall
  ---------------------- ---------------- ---------
  Routes                                         62
    Completed                   11 (100%)        11 ( 17%)
    Not completed                0 (  0%)        51
  Vias                           0 (100%)         0
  Elapsed time             0:00:00 (100%)   0:00:00
  -------------------------------------------------


 Net class: Default  Width: 10.0mil       Via Padstack: (Default)     
      
  Vertical               Pass Num:   3    Overall
  ---------------------- ---------------- ---------
  Routes                                         62
    Completed                   13 (100%)        24 ( 38%)
    Not completed                0 (  0%)        38
  Vias                           0 (100%)         0
  Elapsed time             0:00:00 (100%)   0:00:00
  -------------------------------------------------


 Net class: Default  Width: 10.0mil       Via Padstack: (Default)     
      
  'L' routes             Pass Num:   4    Overall
  ---------------------- ---------------- ---------
  Routes                                         62
    Completed                   27 (100%)        51 ( 82%)
    Not completed                0 (  0%)        11
  Vias                          26 (100%)        26
  Elapsed time             0:00:00 (100%)   0:00:00
  -------------------------------------------------


 Net class: Default  Width: 10.0mil       Via Padstack: (Default)     
      
  'Z' routes             Pass Num:   5    Overall
  ---------------------- ---------------- ---------
  Routes                                         62
    Completed                    5 (100%)        56 ( 90%)

----------------------------------------------------------------------

29-Dec-16  11:09                                            Page    3

P-CAD 2001 PCB TRIAL VERSION - 0 days left Version 16.00.56 Routing Log File

======================================================================

    Not completed                0 (  0%)         6
  Vias                          10 ( 27%)        36
  Elapsed time             0:00:00 (100%)   0:00:00
  -------------------------------------------------


 Net class: Default  Width: 10.0mil       Via Padstack: (Default)     
      
  'C' routes             Pass Num:   6    Overall
  ---------------------- ---------------- ---------
  Routes                                         62
    Completed                    3 (100%)        59 ( 95%)
    Not completed                0 (  0%)         3
  Vias                           4 ( 10%)        40
  Elapsed time             0:00:00 (100%)   0:00:00
  -------------------------------------------------


 Net class: Default  Width: 10.0mil       Via Padstack: (Default)     
      
  Any node (2 vias)      Pass Num:   7    Overall
  ---------------------- ---------------- ---------
  Routes                                         62
    Completed                    2 (100%)        61 ( 98%)
    Not completed                0 (  0%)         1
  Vias                           3 (  6%)        43
  Elapsed time             0:00:01 (100%)   0:00:01
  -------------------------------------------------


 Net class: Default  Width: 10.0mil       Via Padstack: (Default)     
      
  Maze                   Pass Num:   8    Overall
  ---------------------- ---------------- ---------
  Routes                                         62
    Completed                    1 (100%)        62 (100%)
    Not completed                0 (  0%)         0
  Vias                           5 ( 10%)        48
  Elapsed time             0:00:00 (  0%)   0:00:01
  -------------------------------------------------


 Net class: Default  Width: 10.0mil       Via Padstack: (Default)     
      
  Any node (maze)        Pass Num:   9    Overall
  ---------------------- ---------------- ---------
  Routes                                         62
    Completed                    0 (100%)        62 (100%)
    Not completed                0 (100%)         0
  Vias                           0 (  0%)        48
  Elapsed time             0:00:00 (  0%)   0:00:01
  -------------------------------------------------


 Net class: Default  Width: 10.0mil       Via Padstack: (Default)     
      
  Trace cleanup #1       Pass Num:  10    Overall

----------------------------------------------------------------------

29-Dec-16  11:09                                            Page    4

P-CAD 2001 PCB TRIAL VERSION - 0 days left Version 16.00.56 Routing Log File

======================================================================

  ---------------------- ---------------- ---------
  Routes                                         62
    Completed                    0 (100%)        62 (100%)
    Not completed                0 (100%)         0
  Vias                           0 (  0%)        48
  Elapsed time             0:00:00 (  0%)   0:00:01
  -------------------------------------------------


 Net class: Default  Width: 10.0mil       Via Padstack: (Default)     
      
  Trace cleanup #2       Pass Num:  11    Overall
  ---------------------- ---------------- ---------
  Routes                                         62
    Completed                    0 (100%)        62 (100%)
    Not completed                0 (100%)         0
  Vias                           0 (  0%)        48
  Elapsed time             0:00:00 (  0%)   0:00:01
  -------------------------------------------------


 Net class: Default  Width: 10.0mil       Via Padstack: (Default)     
      
  Via minimization       Pass Num:  12    Overall
  ---------------------- ---------------- ---------
  Routes                                         62
    Completed                    0 (100%)        62 (100%)
    Not completed                0 (100%)         0
  Vias                         -12 (-25%)        36
  Elapsed time             0:00:00 (  0%)   0:00:01
  -------------------------------------------------



Final statistics:

  Board:
    Physical dimensions (inches):            2.910 by 2.110
    Routing area (square inches):            6.140
    Total pads in file:                    141
    Equivalent 16-pin ICs (EICs):            8.813
    Density (square inches per EIC):         0.697
  Routing performance:
    Vias total:                             36 ( 25% of total pads)
    Vias added:                             36 (100% of total vias)
    Routed connections (this run):          62
    Routed connections (total):             62 (100%)
    Unrouted connections (total):            0 (  0%)
    Total routing time:                0:00:01

Start time:       11:09:03 29-Dec-16
Completion time:  11:09:04 29-Dec-16
Free memory:      -1843933184

End of log file.
